mdkmnk
new line...
vdcdvfsd
line new 

new line2

a